*Heading
** Job name: Job-1 Model name: TPB_MEDIUM3_input-Copy
** Generated by: Abaqus/CAE 2022
*Preprint, echo=NO, model=NO, history=NO, contact=NO
**
*PARAMETER
**
*******************************************************************************
**                                                                           **
**  1-Phase: General LDPM,  2-Phase: Not Used,  3-Phase: ITZ Prop.           **
**                                                                           **
*******************************************************************************
**
Density1                            = 2.338e-9
NormalModulus1                      = 60273
ALPHA                               = 0.25
TensileStrength1                    = 3.44
TensileCharacteristicLength1        = 500
ShearStrengthRatio1                 = 2.6
SofteningExponent1                  = 0.4
CompressiveYieldingStrength1        = 150
InitialHardeningModulusRatio1       = 0.4
TransitionalStrainRatio1            = 4
DeviatoricStrainThresholdRatio1     = 1
DeviatoricDamageParameter1          = 5
InitialFriction1                    = 4.000000e-01
AsymptoticFriction1                 = 0.000000e+00
TransitionalStress1                 = 600
DensificationRatio1                 = 1.000000e+00
VolumetricDeviatoricCoupling1       = 0.000000e+00
TensileUnloading1               =0.0
ShearUnloading1                 =0.0
CompressiveUnloading1           =0.0
ShearSoftening1                 =0.0
FinalHardeningModulusRatio1     =0.1
ElasticAnalysisFlag1            =0
**
*******************************************************************************
**                                                                           **
**  1-Phase: Not Used,  2-Phase: Binder Prop.,  3-Phase: Binder Prop.        **
**                                                                           **
*******************************************************************************
**
Density2                        =0
ElasticModulus2                 =0
Poisson2                        =0
TensileStrength2                =0
TensileCharacteristicLength2    =0
ShearStrengthRatio2             =0
SofteningExponent2              =0
CompressiveYieldingStrength2    =0
InitialHardeningModulusRatio2   =0
TransitionalStrainRatio2        =0
DeviatoricStrainThresholdRatio2 =0
DeviatoricDamageParameter2      =0
InitialFriction2                =0
AsymptoticFriction2             =0
TransitionalStress2             =0
DensificationRatio2             =0
VolumetricDeviatoricCoupling2   =0
TensileUnloading2               =0
ShearUnloading2                 =0
CompressiveUnloading2           =0
ShearSoftening2                 =0
FinalHardeningModulusRatio2     =0
ElasticAnalysisFlag2            =0
**
*******************************************************************************
**                                                                           **
**  1-Phase: Not Used,  2-Phase: Aggregate Prop.,  3-Phase: Aggregate Prop.  **
**                                                                           **
*******************************************************************************
**
Density3                        =0
ElasticModulus3                 =0
Poisson3                        =0
TensileStrength3                =0
TensileCharacteristicLength3    =0
ShearStrengthRatio3             =0
SofteningExponent3              =0
CompressiveYieldingStrength3    =0
InitialHardeningModulusRatio3   =0
TransitionalStrainRatio3        =0
DeviatoricStrainThresholdRatio3 =0
DeviatoricDamageParameter3      =0
InitialFriction3                =0
AsymptoticFriction3             =0
TransitionalStress3             =0
DensificationRatio3             =0
VolumetricDeviatoricCoupling3   =0
TensileUnloading3               =0
ShearUnloading3                 =0
CompressiveUnloading3           =0
ShearSoftening3                 =0
FinalHardeningModulusRatio3     =0
ElasticAnalysisFlag3            =0
**
** Other Properties
**
NumberOfUserElement                = 14889
** PARTS
**
*Part, name=PART-1
*USER ELEMENT, NODES=4, TYPE=VU4, COORDINATES=3, variables=300, PROPERTIES=69, I PROPERTIES=1, INTEGRATION=3 
1, 2, 3, 4, 5, 6 
*Node
      1,           0.,          30.,         200.
      2,           0.,   25.4198551,   191.949646
      3,           0.,          20.,         200.
      4,           0.,           0.,         120.
      5,           0.,    10.684123,         115.
      6,           0.,           0.,         110.
      7,           0.,          50.,           0.
      8,           0.,   53.8198395,   10.8466101
      9,           0.,          60.,           0.
     10,           0.,           0.,          50.
     11,           0.,   10.4897814,   45.6938591
     12,           0.,           0.,          40.
     13,           0.,   75.2231903,   174.634277
     14,           0.,   66.8454285,   165.575882
     15,           0.,   64.0481644,   177.221619
     16,           0.,          70.,           0.
     17,           0.,    74.145401,   10.4408445
     18,           0.,          80.,           0.
     19,           0.,           0.,          30.
     20,           0.,   9.40416527,   26.7201023
** ... 3273 like lines cut
*Element, type=VU4,elset=AllEls
    1, 1313, 1282,  862, 1069
    2,  377, 2314, 2460, 2189
    3, 2232, 2066, 2214, 2994
    4, 1313, 1282, 1069, 3058
    5,   63,   88, 1943, 2500
    6,  378,  538,  669, 1278
    7,  744,  765, 3021, 2502
    8,  226,  246,  228, 2292
    9,  409,  411, 2549, 3186
   10, 2359, 2564, 2003, 2269
   11, 1939,  707, 2902, 2172
   12, 1079,  941, 1810, 1667
   13,  188,  207, 2467, 2550
   14,   90,   89,  880, 1906
   15, 1851, 2215, 2970, 2066
   16, 3003, 2290, 2874, 2366
   17, 2275, 2957, 2033, 1963
   18, 2158, 2106, 2364, 2873
   19, 1273, 1272, 1275, 2512
   20, 1386, 1282, 1398, 2842
** ... 14869 like lines cut
*UEL PROPERTY, ELSET=AllEls 
<Density1>, <NormalModulus1>, <ALPHA>, <TensileStrength1>, <TensileCharacteristicLength1>, <ShearStrengthRatio1>, <SofteningExponent1>, <CompressiveYieldingStrength1>,
<InitialHardeningModulusRatio1>, <TransitionalStrainRatio1>, <DeviatoricStrainThresholdRatio1>, <DeviatoricDamageParameter1>, <InitialFriction1>, <AsymptoticFriction1>, <TransitionalStress1>, <DensificationRatio1>,
<VolumetricDeviatoricCoupling1>, <TensileUnloading1>, <ShearUnloading1>, <CompressiveUnloading1>, <ShearSoftening1>, <FinalHardeningModulusRatio1>, <ElasticAnalysisFlag1>, <Density2>,
<ElasticModulus2>, <Poisson2>, <TensileStrength2>, <TensileCharacteristicLength2>, <ShearStrengthRatio2>, <SofteningExponent2>, <CompressiveYieldingStrength2>, <InitialHardeningModulusRatio2>,
<TransitionalStrainRatio2>, <DeviatoricStrainThresholdRatio2>, <DeviatoricDamageParameter2>,  <InitialFriction2>, <AsymptoticFriction2>, <TransitionalStress2>, <DensificationRatio2>, <VolumetricDeviatoricCoupling2>,
<TensileUnloading2>, <ShearUnloading2>, <CompressiveUnloading2>, <ShearSoftening2>, <FinalHardeningModulusRatio2>, <ElasticAnalysisFlag2>, <Density3>, <ElasticModulus3>,
<Poisson3>, <TensileStrength3>, <TensileCharacteristicLength3>, <ShearStrengthRatio3>, <SofteningExponent3>, <CompressiveYieldingStrength3>, <InitialHardeningModulusRatio3>, <TransitionalStrainRatio3>,
<DeviatoricStrainThresholdRatio3>, <DeviatoricDamageParameter3>, <InitialFriction3>, <AsymptoticFriction3>, <TransitionalStress3>, <DensificationRatio3>, <VolumetricDeviatoricCoupling3>, <TensileUnloading3>,
<ShearUnloading3>, <CompressiveUnloading3>, <ShearSoftening3>, <FinalHardeningModulusRatio3>, <ElasticAnalysisFlag3>, <NumberOfUserElement>
*End Part
**  
*Part, name=PART-2
*Node
      1,        525.5,         100.,         200.
      2,        525.5,           0.,         200.
      3,        525.5,           0.,           0.
      4,        525.5,         100.,           0.
      5,           0.,           0.,         200.
      6,           0.,           0.,           0.
      7,           0.,         100.,           0.
      8,           0.,         100.,         200.
      9,        525.5,          80.,         200.
     10,        525.5,          60.,         200.
     11,        525.5,          40.,         200.
     12,        525.5,          20.,         200.
     13,        525.5,           0.,         180.
     14,        525.5,           0.,         160.
     15,        525.5,           0.,         140.
     16,        525.5,           0.,         120.
     17,        525.5,           0.,         100.
     18,        525.5,           0.,          80.
     19,        525.5,           0.,          60.
     20,        525.5,           0.,          40.
** ... 1919 like lines cut
*Element, type=C3D4
   1,  883,  884,  885,  886
   2,  883,  887,  888,  889
   3,  890,  883,  889,  887
   4,  889,  890,  891,  892
   5,  893,  894,  895,  896
   6,  893,  897,  898,  899
   7,  893,  900,  897,  899
   8,  893,  896,  897,  900
   9,  901,  902,  903,  186
  10,  901,  903,  902,  904
  11,  901,  905,  906,  907
  12,  901,  908,  909,  907
  13,  901,  910,  903,  908
  14,  911,  912,  913,  914
  15,  915,  916,  917,  918
  16,  919,  915,  920,  921
  17,  922,  921,  920,  923
  18,  915,  924,  921,  925
  19,  926,   11,  844,  845
  20,  927,  928,  929,  930
** ... 8809 like lines cut
*Nset, nset=_PICKEDSET2, internal, generate
    1,  1939,     1
*Elset, elset=_PICKEDSET2, internal, generate
    1,  8829,     1
** Section: Section-1-_PICKEDSET2
*Solid Section, elset=_PICKEDSET2, material=FEA
,
*End Part
**  
*Part, name=PART-3
*Node
      1,          10.,          50.,          10.
      2,          10.,         -50.,          10.
      3,          10.,         -50.,           0.
      4,          10.,          50.,           0.
      5,         -10.,         -50.,          10.
      6,         -10.,         -50.,           0.
      7,         -10.,          50.,           0.
      8,         -10.,          50.,          10.
      9,          10.,          40.,          10.
     10,          10.,          30.,          10.
     11,          10.,          20.,          10.
     12,          10.,          10.,          10.
     13,          10.,           0.,          10.
     14,          10.,         -10.,          10.
     15,          10.,         -20.,          10.
     16,          10.,         -30.,          10.
     17,          10.,         -40.,          10.
     18,          10.,         -40.,           0.
     19,          10.,         -30.,           0.
     20,          10.,         -20.,           0.
** ... 66 like lines cut
*Element, type=C3D4
  1, 67, 68, 66, 49
  2, 67, 68, 28, 27
  3, 67, 69, 49, 66
  4, 67, 69, 18, 49
  5, 67, 17,  3, 18
  6, 67,  2, 28,  3
  7, 70, 71, 43, 61
  8, 70, 72, 62, 53
  9, 70, 34, 71, 54
 10, 70, 73, 53, 62
 11, 70, 73, 62, 44
 12, 70, 62, 43, 44
 13, 74, 71, 60, 55
 14, 74, 75, 60, 11
 15, 74, 61, 71, 54
 16, 74, 54, 72, 61
 17, 74, 12, 72, 23
 18, 74, 11, 60, 12
 19, 72, 53, 76, 62
 20, 70, 72, 53, 54
** ... 220 like lines cut
*Nset, nset=_PICKEDSET3, internal, generate
  1,  86,   1
*Elset, elset=_PICKEDSET3, internal, generate
   1,  240,    1
** Section: Section-2-_PICKEDSET3
*Solid Section, elset=_PICKEDSET3, material=STEEL
,
*End Part
**  
**
** ASSEMBLY
**
*Assembly, name=Assembly
**  
*Instance, name=PART-1-1, part=PART-1
*End Instance
**  
*Instance, name=PART-2-1, part=PART-2
      -525.5,           0.,           0.
*End Instance
**  
*Instance, name=PART-2-2, part=PART-2
        100.,           0.,           0.
*End Instance
**  
*Instance, name=PART-3-1, part=PART-3
      -515.5,          50.,         -10.
*End Instance
**  
*Instance, name=PART-3-2, part=PART-3
       615.5,          50.,         -10.
*End Instance
**  
*Instance, name=PART-3-3, part=PART-3
         50.,          50.,         200.
*End Instance
**  
*Node
      1,          50.,          50.,         210.
      2,       -515.5,          50.,         -10.
      3,        615.5,          50.,         -10.
*Nset, nset=CMOD, instance=PART-1-1
 1244, 1424
*Nset, nset=RP1
 1,
*Nset, nset=RP2
 2,
*Nset, nset=RP3
 3,
*Nset, nset=ldpm-left, instance=PART-1-1, generate
   1,  290,    1
*Nset, nset=ldpm-right, instance=PART-1-1
  292,  293,  312,  313,  338,  340,  349,  356,  358,  387,  396,  406,  408,  444,  459,  508
  527,  528,  541,  558,  685,  698,  700,  714,  715,  716,  718,  732,  735,  736,  738,  824
  826,  864,  865,  871,  873,  881,  895,  897,  921,  928,  939,  941,  973,  988, 1052, 1053
 1072, 1080, 1091, 1538, 1540, 1542, 1543, 1555, 1557, 1558, 1562, 1564, 1599, 1600, 1601, 1602
 1603, 1604, 1605, 1606, 1607, 1608, 1609, 1610, 1611, 1612, 1613, 1614, 1615, 1616, 1617, 1618
 1619, 1620, 1621, 1622, 1623, 1624, 1625, 1626, 1627, 1628, 1629, 1630, 1631, 1632, 1633, 1634
 1635, 1636, 1637, 1638, 1639, 1640, 1641, 1642, 1643, 1644, 1645, 1646, 1647, 1648, 1649, 1650
 1651, 1652, 1653, 1654, 1655, 1656, 1657, 1658, 1659, 1660, 1661, 1662, 1663, 1664, 1665, 1666
 1667, 1668, 1669, 1670, 1671, 1672, 1673, 1674, 1675, 1676, 1677, 1678, 1679, 1680, 1681, 1682
 1683, 1684, 1685, 1686, 1687, 1688, 1689, 1690, 1691, 1692, 1693, 1694, 1695, 1696, 1697, 1698
 1699, 1700, 1701, 1702, 1703, 1704, 1705, 1706, 1707, 1708, 1709, 1710, 1711, 1712, 1713, 1714
 1715, 1716, 1717, 1718, 1719, 1720, 1721, 1722, 1723, 1724, 1725, 1726, 1727, 1728, 1729, 1730
 1731, 1732, 1733, 1734, 1735, 1736, 1737, 1738, 1739, 1740, 1741, 1742, 1743, 1744, 1745, 1746
 1747, 1748, 1749, 1750, 1751, 1752, 1753, 1754, 1755, 1756, 1757, 1758, 1759, 1760, 1761, 1762
 1763, 1764, 1765, 1766, 1767, 1768, 1769, 1770, 1771, 1772, 1773, 1774, 1775, 1776, 1777, 1778
 1779, 1780, 1781, 1782, 1783, 1784, 1785, 1786, 1787, 1788, 1789, 1790, 1791, 1792, 1793, 1794
 1795, 1796, 1797, 1798, 1799, 1800, 1801, 1802, 1803, 1804, 1805, 1806, 1807, 1808, 1809, 1810
 1811, 1812, 1813, 1814, 1815, 1816, 1817, 1818, 1819, 1820, 1821, 1822, 1823, 1824, 1825, 1826
 1827, 1828, 1829, 1830, 1831, 1832, 1833
*Nset, nset=ldpm-top, instance=PART-1-1
   1,   3,  34,  35, 134, 135, 152, 185, 187, 225, 228, 422, 424, 494, 496, 614
 616, 640, 643, 645, 685, 698, 699, 700, 701, 702, 703, 704, 705, 706, 707, 708
 709, 710, 711, 712, 713, 714, 715, 716, 717, 718, 719, 720, 721, 722, 723, 724
 725, 726, 727, 728, 729, 730, 731, 732, 733, 734, 735, 736, 737, 738, 739, 740
 741, 742, 743, 744, 745, 746, 747, 748, 749, 750, 751, 752, 753, 754, 755, 756
 757, 758, 759, 760, 761, 762, 763, 764, 765, 766, 767, 768, 769, 770, 771, 772
 773, 774, 775, 776, 777, 778, 779, 780, 781, 782, 783, 784, 785, 786, 787, 788
 789, 790, 791, 792, 793, 794, 795, 796, 797, 798, 799, 800, 801, 802, 803, 804
 805, 806, 807, 808, 809, 810, 811, 812, 813, 814, 815, 816, 817, 818, 819, 820
 821, 822, 823
*Elset, elset=load, instance=PART-3-3, generate
   1,  240,    1
*Elset, elset=support-1, instance=PART-3-1, generate
   1,  240,    1
*Elset, elset=support-2, instance=PART-3-2, generate
   1,  240,    1
*Nset, nset=_PickedSet22, internal
 1,
*Nset, nset=_PickedSet24, internal
 2,
*Nset, nset=_PickedSet26, internal
 3,
*Elset, elset=_leftbeam-bot_S1, internal, instance=PART-2-1
 4027, 4035, 5376, 5494, 5548
*Elset, elset=_leftbeam-bot_S2, internal, instance=PART-2-1
 5401, 5572, 8197
*Elset, elset=_leftbeam-bot_S3, internal, instance=PART-2-1
   30,  345,  598, 1036, 1633, 1645, 1661, 1669, 1706, 1943, 1950, 2012, 2017, 2028, 2031, 2050
 2091, 2275, 2422, 2505, 2607, 2619, 2696, 2713, 2771, 2791, 2813, 2832, 2852, 2875, 2964, 2966
 2984, 3046, 3081, 3144, 3148, 3164, 3175, 3177, 3190, 3200, 3221, 3222, 3233, 3338, 3347, 3386
 3391, 3413, 3433, 3456, 3468, 3480, 3483, 3488, 3495, 3512, 3549, 3554, 3564, 3567, 3586, 3590
 3592, 3593, 3598, 3600, 3619, 3631, 3635, 3644, 3656, 3672, 3703, 3718, 3721, 3734, 3737, 3740
 3742, 3748, 3750, 3765, 3767, 3773, 3785, 3790, 3793, 3800, 3805, 3811, 3812, 3816, 3819, 3827
 3832, 3833, 3850, 3865, 3880, 3885, 3899, 3921, 3925, 3937, 3940, 3941, 3952, 3954, 3962, 3967
 3968, 3982, 3991, 3994, 4002, 4020, 4036, 4037, 4038, 4046, 4050, 4063, 4067, 4083, 4092, 4101
 4103, 4109, 4112, 4116, 4135, 4138, 4152, 4167, 4181, 4187, 4193, 4203, 4214, 4228, 4231, 4235
 4247, 4254, 4255, 4259, 4264, 4280, 4282, 4325, 4362, 4371, 4453, 4573, 4755, 4806, 4982, 5000
 5074, 5118, 5153, 5264, 5320, 5321, 5339, 5362, 5378, 5409, 5432, 5433, 5436, 5443, 5452, 5456
 5457, 5466, 5475, 5477, 5481, 5484, 5534, 5545, 5555, 5567, 5584, 5589, 5601, 5603, 5636, 5640
 5681, 5693, 5717, 5744, 5747, 5781, 6297, 6429, 6449, 6489, 6529, 6537, 6538, 6589, 6605, 6608
 6635, 6644, 6650, 6662, 6734, 6747, 6778, 6779, 6816, 6833, 6867, 6878, 6918, 6921, 6949, 6951
 7015, 7016, 7032, 7190, 7225, 7501, 7615, 7632, 7655, 7662, 7948, 7995, 8113, 8171, 8172, 8202
 8496, 8535, 8537, 8640, 8642, 8803
*Elset, elset=_leftbeam-bot_S4, internal, instance=PART-2-1
 3675, 3914, 5659, 6555, 6630, 7009
*Surface, type=ELEMENT, name=leftbeam-bot
_leftbeam-bot_S1, S1
_leftbeam-bot_S2, S2
_leftbeam-bot_S4, S4
_leftbeam-bot_S3, S3
*Elset, elset=_leftbeam-side_S1, internal, instance=PART-2-1
 2032, 4219, 4986, 7676
*Elset, elset=_leftbeam-side_S2, internal, instance=PART-2-1
 1822, 2094
*Elset, elset=_leftbeam-side_S3, internal, instance=PART-2-1
 1241, 1260, 1615, 1694, 1753, 1761, 1763, 1769, 1775, 1784, 1791, 1800, 1812, 1813, 1820, 1836
 1852, 1858, 1862, 1868, 1872, 1883, 1897, 1905, 1911, 1915, 1920, 1926, 1940, 1941, 1952, 1965
 1974, 1984, 1989, 1992, 2000, 2005, 2013, 2021, 2022, 2029, 2033, 2051, 2073, 2082, 2085, 2092
 2093, 2097, 2108, 2110, 2413, 2414, 2660, 2665, 2809, 2916, 2950, 3167, 3551, 3728, 4012, 4014
 4016, 4357, 4639, 4647, 4655, 4814, 4826, 4954, 4968, 5098, 5237, 5243, 5271, 5371, 5512, 5765
 5865, 6210, 6581, 6938, 7060, 7161, 7264, 7278, 7622, 7672, 8482, 8598
*Elset, elset=_leftbeam-side_S4, internal, instance=PART-2-1
 2797, 4305
*Surface, type=ELEMENT, name=leftbeam-side
_leftbeam-side_S1, S1
_leftbeam-side_S2, S2
_leftbeam-side_S4, S4
_leftbeam-side_S3, S3
*Elset, elset=_leftsupport_S3, internal, instance=PART-3-1
  12,  18,  24,  30,  34,  41,  42,  54,  56,  66,  71,  76,  81,  84,  92,  97
 101, 108, 112, 122, 134, 140, 143, 147, 152, 157, 161, 165, 168, 171, 179, 185
 187, 188, 191, 208, 213, 217, 220, 236
*Surface, type=ELEMENT, name=leftsupport
_leftsupport_S3, S3
*Elset, elset=_rightbeam-bot_S1, internal, instance=PART-2-2
 4027, 4035, 5376, 5494, 5548
*Elset, elset=_rightbeam-bot_S2, internal, instance=PART-2-2
 5401, 5572, 8197
*Elset, elset=_rightbeam-bot_S3, internal, instance=PART-2-2
   30,  345,  598, 1036, 1633, 1645, 1661, 1669, 1706, 1943, 1950, 2012, 2017, 2028, 2031, 2050
 2091, 2275, 2422, 2505, 2607, 2619, 2696, 2713, 2771, 2791, 2813, 2832, 2852, 2875, 2964, 2966
 2984, 3046, 3081, 3144, 3148, 3164, 3175, 3177, 3190, 3200, 3221, 3222, 3233, 3338, 3347, 3386
 3391, 3413, 3433, 3456, 3468, 3480, 3483, 3488, 3495, 3512, 3549, 3554, 3564, 3567, 3586, 3590
 3592, 3593, 3598, 3600, 3619, 3631, 3635, 3644, 3656, 3672, 3703, 3718, 3721, 3734, 3737, 3740
 3742, 3748, 3750, 3765, 3767, 3773, 3785, 3790, 3793, 3800, 3805, 3811, 3812, 3816, 3819, 3827
 3832, 3833, 3850, 3865, 3880, 3885, 3899, 3921, 3925, 3937, 3940, 3941, 3952, 3954, 3962, 3967
 3968, 3982, 3991, 3994, 4002, 4020, 4036, 4037, 4038, 4046, 4050, 4063, 4067, 4083, 4092, 4101
 4103, 4109, 4112, 4116, 4135, 4138, 4152, 4167, 4181, 4187, 4193, 4203, 4214, 4228, 4231, 4235
 4247, 4254, 4255, 4259, 4264, 4280, 4282, 4325, 4362, 4371, 4453, 4573, 4755, 4806, 4982, 5000
 5074, 5118, 5153, 5264, 5320, 5321, 5339, 5362, 5378, 5409, 5432, 5433, 5436, 5443, 5452, 5456
 5457, 5466, 5475, 5477, 5481, 5484, 5534, 5545, 5555, 5567, 5584, 5589, 5601, 5603, 5636, 5640
 5681, 5693, 5717, 5744, 5747, 5781, 6297, 6429, 6449, 6489, 6529, 6537, 6538, 6589, 6605, 6608
 6635, 6644, 6650, 6662, 6734, 6747, 6778, 6779, 6816, 6833, 6867, 6878, 6918, 6921, 6949, 6951
 7015, 7016, 7032, 7190, 7225, 7501, 7615, 7632, 7655, 7662, 7948, 7995, 8113, 8171, 8172, 8202
 8496, 8535, 8537, 8640, 8642, 8803
*Elset, elset=_rightbeam-bot_S4, internal, instance=PART-2-2
 3675, 3914, 5659, 6555, 6630, 7009
*Surface, type=ELEMENT, name=rightbeam-bot
_rightbeam-bot_S1, S1
_rightbeam-bot_S2, S2
_rightbeam-bot_S4, S4
_rightbeam-bot_S3, S3
*Elset, elset=_rightbeam-side_S1, internal, instance=PART-2-2
 6400,
*Elset, elset=_rightbeam-side_S2, internal, instance=PART-2-2
 6422,
*Elset, elset=_rightbeam-side_S3, internal, instance=PART-2-2
  116,  140,  214,  427,  489,  783,  853, 1265, 1392, 1623, 1627, 1670, 2395, 2407, 2579, 2649
 2777, 2903, 3021, 3149, 3279, 3604, 3605, 3814, 4000, 4128, 4312, 4329, 4360, 4387, 4392, 4429
 4636, 5248, 5658, 5667, 5771, 5784, 5800, 5809, 5810, 5811, 5821, 6315, 6326, 6327, 6331, 6334
 6335, 6340, 6346, 6351, 6357, 6359, 6363, 6368, 6370, 6382, 6383, 6387, 6393, 6397, 6405, 6423
 6424, 6430, 6432, 6496, 6592, 6643, 6745, 6759, 6775, 6786, 6857, 6902, 6941, 6945, 6950, 6952
 6954, 6961, 6968, 7098, 7099, 7100, 7112, 7230, 7411, 7413, 7579, 7735, 7781, 7783, 7787, 8415
 8422,
*Elset, elset=_rightbeam-side_S4, internal, instance=PART-2-2
 6415,
*Surface, type=ELEMENT, name=rightbeam-side
_rightbeam-side_S1, S1
_rightbeam-side_S2, S2
_rightbeam-side_S4, S4
_rightbeam-side_S3, S3
*Elset, elset=_rightsupport_S3, internal, instance=PART-3-2
  12,  18,  24,  30,  34,  41,  42,  54,  56,  66,  71,  76,  81,  84,  92,  97
 101, 108, 112, 122, 134, 140, 143, 147, 152, 157, 161, 165, 168, 171, 179, 185
 187, 188, 191, 208, 213, 217, 220, 236
*Surface, type=ELEMENT, name=rightsupport
_rightsupport_S3, S3
*Elset, elset=_topload_S3, internal, instance=PART-3-3
  32,  51,  73,  82, 107, 126, 128, 129, 131, 133, 135, 137, 139, 141, 146, 148
 150, 151, 154, 155, 163, 169, 172, 173, 174, 177, 186, 192, 194, 200, 203, 212
 215, 216, 224, 226, 229, 238, 239, 240
*Surface, type=ELEMENT, name=topload
_topload_S3, S3
*Surface, type=NODE, name=ldpm-top_CNS_, internal
ldpm-top, 1.
*Surface, type=NODE, name=ldpm-left_CNS_, internal
ldpm-left, 1.
*Surface, type=NODE, name=ldpm-right_CNS_, internal
ldpm-right, 1.
** Constraint: Rigid-1
*Rigid Body, ref node=_PickedSet22, elset=load
** Constraint: Rigid-2
*Rigid Body, ref node=_PickedSet24, elset=support-1
** Constraint: Rigid-3
*Rigid Body, ref node=_PickedSet26, elset=support-2
** Constraint: tie-1
*Tie, name=tie-1, adjust=yes
ldpm-top_CNS_, topload
** Constraint: tie-2
*Tie, name=tie-2, adjust=yes
leftbeam-side, ldpm-left_CNS_
** Constraint: tie-3
*Tie, name=tie-3, adjust=yes
rightbeam-side, ldpm-right_CNS_
** Constraint: tie-4
*Tie, name=tie-4, adjust=yes
leftbeam-bot, leftsupport
** Constraint: tie-5
*Tie, name=tie-5, adjust=yes
rightbeam-bot, rightsupport
*End Assembly
*Amplitude, name=AMP-1
             0.,              0.,           0.002,              1.,              1.,              1.
** 
** MATERIALS
** 
*Material, name=FEA
*Density
 2.338e-9,
*Elastic
39000., 0.2
*Material, name=STEEL
*Density
 7.8e-09,
*Elastic
200000., 0.3
** ----------------------------------------------------------------
** 
** STEP: Step-1
** 
*Step, name=Step-1, nlgeom=YES
*Dynamic, Explicit, direct user control
1e-07, 0.2
*Bulk Viscosity
0., 0.
** 
** BOUNDARY CONDITIONS
** 
** Name: Disp-BC-1 Type: Displacement/Rotation
*Boundary
RP2, 3, 3
** Name: Disp-BC-2 Type: Displacement/Rotation
*Boundary
RP3, 3, 3
** Name: Disp-BC-3 Type: Displacement/Rotation
*Boundary
RP1, 1, 1
** Name: Vel-BC-1 Type: Velocity/Angular velocity
*Boundary, amplitude=AMP-1, type=VELOCITY
RP1, 3, 3, -5.
** 
** OUTPUT REQUESTS
** 
*Restart, write, number interval=1, time marks=NO
** 
** FIELD OUTPUT: F-Output-1
** 
*Output, field, number interval=200
*Node Output, nset=CMOD
RT, UT
** 
** FIELD OUTPUT: F-Output-2
** 
*Node Output, nset=RP1
RM, RT, UT
** 
** FIELD OUTPUT: F-Output-3
** 
*Node Output, nset=RP2
RM, RT, UT
** 
** FIELD OUTPUT: F-Output-4
** 
*Node Output, nset=RP3
RM, RT, UT
** 
** HISTORY OUTPUT: H-Output-1
** 
*Output, history, variable=PRESELECT
*End Step
